
/homes/phjk/simplesim-wattch/sim-outorder ./SSCA2v2.2/SSCA2 7
